tests/data/short_circuit/multiple_short_circuits_different_subgrids/input.json
{
  "version": "1.0",
  "type": "input",
  "is_batch": false,
  "attributes": {},
  "data": {
    "node": [
      {
        "id": 1,
        "u_rated": 100000.0
      },
      {
        "id": 2,
        "u_rated": 100000.0
      },
      {
        "id": 3,
        "u_rated": 100000.0
      },
      {
        "id": 4,
        "u_rated": 100000.0
      }
    ],
    "line": [
      {
        "id": 5,
        "from_node": 1,
        "to_node": 2,
        "from_status": 1,
        "to_status": 1,
        "r1": 10.0,
        "x1": 0.0,
        "c1": 0.0,
        "tan1": 0.0,
        "r0": 10.0,
        "x0": 0.0,
        "c0": 0.0,
        "tan0": 0.0,
        "i_n": 1000.0
      },
      {
        "id": 6,
        "from_node": 1,
        "to_node": 2,
        "from_status": 1,
        "to_status": 1,
        "r1": 10.0,
        "x1": 0.0,
        "c1": 0.0,
        "tan1": 0.0,
        "r0": 10.0,
        "x0": 0.0,
        "c0": 0.0,
        "tan0": 0.0,
        "i_n": 1000.0
      }
    ],
    "source": [
      {
        "id": 7,
        "node": 1,
        "status": 1,
        "u_ref": 1.0
      },
      {
        "id": 8,
        "node": 1,
        "status": 1,
        "u_ref": 1.0
      }
    ],
    "fault": [
      {
        "id": 9,
        "status": 1,
        "fault_type": 1,
        "fault_object": 1
      },
      {
        "id": 10,
        "status": 1,
        "fault_type": 1,
        "fault_object": 3
      }
    ]
  }
}
